Circuit: * C:\Users\Tlamangile Ngobeni\Desktop\openIoT\LTSpice\samples\LT1963_DC367.asc

Direct Newton iteration for .op point succeeded.

Date: Thu Mar 18 21:22:52 2021
Total elapsed time: 0.243 seconds.

tnom = 27
temp = 27
method = modified trap
totiter = 2622
traniter = 2598
tranpoints = 1201
accept = 1161
rejected = 40
matrix size = 14
fillins = 4
solver = Normal
Matrix Compiler1: 1.39 KB object code size  1.0/0.5/[0.3]
Matrix Compiler2: 1.46 KB object code size  0.5/0.5/[0.5]

